test/data/matacdc_scripts_opf_paper/balanced/case3120sp_mcdc.m
function mpc = case3120sp_acdc()
%CASE3120SP  Power flow data for Polish system - summer 2008 morning peak.
%   Please see CASEFORMAT for details on the case file format.
%
%   This case represents the Polish 400, 220 and 110 kV networks during
%   summer 2008 morning peak conditions.
%
%   This data was graciously provided by, and is distributed with the
%   permission of, Roman Korab <roman.korab@polsl.pl>.

%   MATPOWER
%   $Id: case3120sp.m 2408 2014-10-22 20:41:33Z ray $

%% MATPOWER Case Format : Version 2
mpc.version = '2';

%%-----  Power Flow Data  -----%%
%% system MVA base
mpc.baseMVA = 100;

%% bus data
%	bus_i	type	Pd	Qd	Gs	Bs	area	Vm	Va	baseKV	zone	Vmax	Vmin
mpc.bus = [
    1	1	0	0	0	0	1	1	0	220	1	1.11	0.95;
    2	1	0	0	0	0	1	1	0	220	1	1.11	0.95;
    3	1	0	0	0	0	1	1	0	220	1	1.11	0.95;
    4	1	0	0	0	0	1	1	0	220	1	1.11	0.95;
    5	1	0	0	0	0	1	1	0	220	1	1.11	0.95;
    6	1	0	0	0	0	1	1	0	220	1	1.11	0.95;
    7	1	0	0	0	0	1	1	0	220	1	1.11	0.95;
    8	1	0	0	0	0	1	1	0	220	1	1.11	0.95;
    9	1	0	0	0	0	1	1	0	220	1	1.11	0.95;
    10	1	0	0	0	0	1	1	0	220	1	1.11	0.95;
    11	1	0	0	0	0	1	1	0	400	1	1.05	0.95;
    12	1	0	0	0	0	1	1	0	400	1	1.05	0.95;
    13	1	0	0	0	0	1	1	0	400	1	1.05	0.95;
    14	1	0	0	0	0	1	1	0	220	1	1.11	0.95;
    15	1	0	0	0	0	1	1	0	220	1	1.11	0.95;
    16	1	0	0	0	0	1	1	0	220	1	1.11	0.95;
    17	1	0	0	0	0	1	1	0	220	1	1.11	0.95;
    18	1	0	0	0	0	1	1	0	400	1	1.05	0.95;
    19	1	0	0	0	0	1	1	0	400	1	1.05	0.95;
    20	1	0	0	0	0	1	1	0	400	1	1.05	0.95;
    21	1	0	0	0	0	1	1	0	400	1	1.05	0.95;
    22	2	10	20	0	0	1	1	0	220	1	1.11	0.95;
    23	2	10	20	0	0	1	1	0	220	1	1.11	0.95;
    24	1	0	0	0	0	1	1	0	220	1	1.11	0.95;
    25	1	0	0	0	0	1	1	0	220	1	1.11	0.95;
    26	1	0	0	0	0	1	1	0	220	1	1.11	0.95;
    27	1	0	0	0	0	1	1	0	220	1	1.11	0.95;
    28	1	0	0	0	0	1	1	0	220	1	1.11	0.95;
    29	1	0	0	0	0	1	1	0	220	1	1.11	0.95;
    30	1	0	0	0	0	1	1	0	220	1	1.11	0.95;
    31	1	0	0	0	0	1	1	0	220	1	1.11	0.95;
    32	1	0	0	0	0	1	1	0	400	1	1.05	0.95;
    33	1	0	0	0	0	1	1	0	400	1	1.05	0.95;
    34	1	0	0	0	0	1	1	0	400	1	1.05	0.95;
    35	2	32.16	52.07	0	0	1	1	0	220	1	1.11	0.95;
    36	2	46.36	92.07	0	0	1	1	0	220	1	1.11	0.95;
    37	3	60	120	0	0	1	1	0	400	1	1.05	0.95;
    38	2	60	120	0	0	1	1	0	400	1	1.05	0.95;
    39	1	0	0	0	0	1	1	0	220	1	1.11	0.95;
    40	1	0	0	0	0	1	1	0	220	1	1.11	0.95;
    41	1	0	0	0	0	1	1	0	400	1	1.05	0.95;
    42	1	0	0	0	0	1	1	0	400	1	1.05	0.95;
    43	1	0	0	0	0	1	1	0	220	1	1.11	0.95;
    44	1	0	0	0	0	1	1	0	400	1	1.05	0.95;
    45	1	0	0	0	0	1	1	0	220	1	1.11	0.95;
    46	1	0	0	0	0	1	1	0	220	1	1.11	0.95;
    47	1	0	0	0	0	1	1	0	220	2	1.11	0.95;
    48	1	0	0	0	0	1	1	0	220	2	1.11	0.95;
    49	1	0	0	0	0	1	1	0	220	2	1.11	0.95;
    50	1	0	0	0	0	1	1	0	220	2	1.11	0.95;
    51	1	0	0	0	0	1	1	0	220	2	1.11	0.95;
    52	1	3.97	1	0	0	1	1	0	220	2	1.11	0.95;
    53	1	0	0	0	0	1	1	0	220	2	1.11	0.95;
    54	1	0	0	0	0	1	1	0	400	2	1.05	0.95;
    55	2	13	30	0	0	1	1	0	220	2	1.11	0.95;
    56	2	39.35	90.07	0	0	1	1	0	220	2	1.11	0.95;
    57	2	26	60	0	0	1	1	0	220	2	1.11	0.95;
    58	2	26	50	0	0	1	1	0	400	2	1.05	0.95;
    59	2	26	50	0	0	1	1	0	400	2	1.05	0.95;
    60	1	0	0	0	0	1	1	0	220	2	1.11	0.95;
    61	1	0	0	0	0	1	1	0	400	2	1.05	0.95;
    62	1	0	0	0	0	1	1	0	400	2	1.05	0.95;
    63	1	0	0	0	0	1	1	0	400	2	1.05	0.95;
    64	1	0	0	0	0	1	1	0	220	2	1.11	0.95;
    65	1	0	0	0	0	1	1	0	220	2	1.11	0.95;
    66	1	0	0	0	0	1	1	0	400	2	1.05	0.95;
    67	1	0	0	0	0	1	1	0	400	2	1.05	0.95;
    68	2	13	30	0	0	1	1	0	220	2	1.11	0.95;
    69	2	26	60	0	0	1	1	0	220	2	1.11	0.95;
    70	2	0	2.25	0	0	1	1	0	400	2	1.05	0.95;
    71	2	26	60	0	0	1	1	0	400	2	1.05	0.95;
    72	1	0	0	0	0	1	1	0	220	2	1.11	0.95;
    73	1	0	0	0	0	1	1	0	220	2	1.11	0.95;
    74	1	0	0	0	0	1	1	0	220	2	1.11	0.95;
    75	1	0	0	0	0	1	1	0	220	2	1.11	0.95;
    76	1	0	0	0	0	1	1	0	220	2	1.11	0.95;
    77	1	0	0	0	0	1	1	0	220	2	1.11	0.95;
    78	1	0	0	0	0	1	1	0	400	2	1.05	0.95;
    79	1	0	0	0	0	1	1	0	400	2	1.05	0.95;
    80	1	0	0	0	0	1	1	0	220	2	1.11	0.95;
    81	1	0	0	0	0	1	1	0	220	2	1.11	0.95;
    82	1	0	0	0	0	1	1	0	220	2	1.11	0.95;
    83	1	0	0	0	0	1	1	0	220	3	1.11	0.95;
    84	1	6.41	2.01	0	0	1	1	0	220	3	1.11	0.95;
    85	1	13.89	5.02	0	0	1	1	0	220	3	1.11	0.95;
    86	1	0	0	0	0	1	1	0	220	3	1.11	0.95;
    87	1	0	0	0	0	1	1	0	220	3	1.11	0.95;
    88	1	0	0	0	0	1	1	0	220	3	1.11	0.95;
    89	1	0	0	0	0	1	1	0	220	3	1.11	0.95;
    90	1	0	0	0	0	1	1	0	220	3	1.11	0.95;
    91	1	0	0	0	0	1	1	0	220	3	1.11	0.95;
    92	2	28	70	0	0	1	1	0	220	3	1.11	0.95;
    93	2	28	68	0	0	1	1	0	220	3	1.11	0.95;
    94	1	2.78	1.91	0	0	1	1	0	220	3	1.11	0.95;
    95	1	0	0	0	0	1	1	0	220	3	1.11	0.95;
    96	2	32	142	0	0	1	1	0	400	3	1.05	0.95;
    97	1	0	0	0	0	1	1	0	400	3	1.05	0.95;
    98	1	0	0	0	0	1	1	0	220	3	1.11	0.95;
    99	1	0	0	0	0	1	1	0	220	3	1.11	0.95;
    100	1	0	0	0	0	1	1	0	220	3	1.11	0.95;
    101	1	38.8	-2.7	0	0	1	1	0	220	3	1.11	0.95;
    102	1	0	0	0	0	1	1	0	220	3	1.11	0.95;
    103	1	0	0	0	0	1	1	0	220	3	1.11	0.95;
    104	1	0	0	0	0	1	1	0	220	3	1.11	0.95;
    105	1	0	0	0	0	1	1	0	220	3	1.11	0.95;
    106	1	0	0	0	0	1	1	0	220	3	1.11	0.95;
    107	1	0	0	0	0	1	1	0	400	3	1.05	0.95;
    108	1	0	0	0	0	1	1	0	400	3	1.05	0.95;
    109	1	0	0	0	0	1	1	0	220	3	1.11	0.95;
    110	1	0	0	0	0	1	1	0	220	3	1.11	0.95;
    111	1	0	0	0	0	1	1	0	220	3	1.11	0.95;
    112	1	0	0	0	0	1	1	0	220	3	1.11	0.95;
    113	2	38.41	12.71	0	0	1	1	0	220	3	1.11	0.95;
    114	1	0	0	0	0	1	1	0	220	3	1.11	0.95;
    115	1	0	0	0	0	1	1	0	220	3	1.11	0.95;
    116	1	0	0	0	0	1	1	0	220	3	1.11	0.95;
    117	1	0	0	0	0	1	1	0	220	3	1.11	0.95;
    118	1	0	0	0	0	1	1	0	220	3	1.11	0.95;
    119	2	10	44	0	0	1	1	0	220	3	1.11	0.95;
    120	2	10	44	0	0	1	1	0	220	3	1.11	0.95;
    121	2	7	18	0	0	1	1	0	220	3	1.11	0.95;
    122	2	8	21	0	0	1	1	0	220	3	1.11	0.95;
    123	1	0	0	0	0	1	1	0	220	3	1.11	0.95;
    124	1	59.4	11.61	0	0	1	1	0	220	3	1.11	0.95;
    125	1	0	0	0	0	1	1	0	220	3	1.11	0.95;
    126	1	0	0	0	0	1	1	0	220	3	1.11	0.95;
    127	1	0	0	0	0	1	1	0	220	3	1.11	0.95;
    128	1	0	0	0	0	1	1	0	220	3	1.11	0.95;
    129	1	0	0	0	0	1	1	0	220	3	1.11	0.95;
    130	1	0	0	0	0	1	1	0	400	3	1.05	0.95;
    131	1	0	0	0	0	1	1	0	400	3	1.05	0.95;
    132	2	0	1.78	0	0	1	1	0	220	3	1.11	0.95;
    133	2	9	20	0	0	1	1	0	220	3	1.11	0.95;
    134	2	6	15	0	0	1	1	0	220	3	1.11	0.95;
    135	1	0	0	0	0	1	1	0	220	3	1.11	0.95;
    136	1	0	0	0	0	1	1	0	400	3	1.05	0.95;
    137	1	0	0	0	0	1	1	0	400	3	1.05	0.95;
    138	1	0	0	0	0	1	1	0	400	3	1.05	0.95;
    139	1	0	0	0	0	1	1	0	400	3	1.05	0.95;
    140	1	0	0	0	0	1	1	0	220	3	1.11	0.95;
    141	1	0	0	0	0	1	1	0	220	3	1.11	0.95;
    142	2	18.2	37.21	0	0	1	1	0	220	3	1.11	0.95;
    143	2	41.52	73.01	0	0	1	1	0	220	3	1.11	0.95;
    144	2	28	66	0	0	1	1	0	400	3	1.05	0.95;
    145	1	0	0	0	0	1	1	0	400	3	1.05	0.95;
    146	1	0	0	0	0	1	1	0	220	3	1.11	0.95;
    147	1	0	0	0	0	1	1	0	220	3	1.11	0.95;
    148	1	0	0	0	0	1	1	0	220	3	1.11	0.95;
    149	1	0	0	0	0	1	1	0	220	3	1.11	0.95;
    150	2	0	-0.79	0	0	1	1	0	220	3	1.11	0.95;
    151	2	0	-0.79	0	0	1	1	0	220	3	1.11	0.95;
    152	2	7.7	20	0	0	1	1	0	220	4	1.11	0.95;
    153	2	7.8	20	0	0	1	1	0	220	4	1.11	0.95;
    154	1	0	0	0	0	1	1	0	220	4	1.11	0.95;
    155	1	0	0	0	0	1	1	0	220	4	1.11	0.95;
    156	1	0	0	0	0	1	1	0	220	4	1.11	0.95;
    157	1	0	0	0	0	1	1	0	220	4	1.11	0.95;
    158	1	0	0	0	0	1	1	0	220	4	1.11	0.95;
    159	1	0	0	0	0	1	1	0	400	4	1.05	0.95;
    160	1	0	0	0	0	1	1	0	400	4	1.05	0.95;
    161	1	0	0	0	0	1	1	0	220	4	1.11	0.95;
    162	1	0	0	0	0	1	1	0	220	4	1.11	0.95;
    163	1	0	0	0	0	1	1	0	220	4	1.11	0.95;
    164	1	0	0	0	0	1	1	0	220	4	1.11	0.95;
    165	1	0	0	0	0	1	1	0	220	4	1.11	0.95;
    166	1	0	0	0	0	1	1	0	220	4	1.11	0.95;
    167	2	0	-13.01	0	0	1	1	0	220	4	1.11	0.95;
    168	1	0	0	0	0	1	1	0	220	4	1.11	0.95;
    169	2	12	30	0	0	1	1	0	220	4	1.11	0.95;
    170	2	19.91	36.57	0	0	1	1	0	220	4	1.11	0.95;
    171	2	12	30	0	0	1	1	0	400	4	1.05	0.95;
    172	2	12	30	0	0	1	1	0	400	4	1.05	0.95;
    173	1	0	0	0	0	1	1	0	220	4	1.11	0.95;
    174	1	0	0	0	0	1	1	0	220	4	1.11	0.95;
    175	1	0	0	0	0	1	1	0	220	4	1.11	0.95;
    176	1	0	0	0	0	1	1	0	220	4	1.11	0.95;
    177	2	30.5	64.2	0	0	1	1	0	220	4	1.11	0.95;
    178	2	58.9	96	0	0	1	1	0	220	4	1.11	0.95;
    179	1	0	0	0	0	1	1	0	220	4	1.11	0.95;
    180	2	26.5	64.2	0	0	1	1	0	400	4	1.05	0.95;
    181	1	0	0	0	0	1	1	0	400	4	1.05	0.95;
    182	1	0	0	0	0	1	1	0	220	4	1.11	0.95;
    183	1	0	0	0	0	1	1	0	220	4	1.11	0.95;
    184	1	0	0	0	0	1	1	0	400	4	1.05	0.95;
    185	1	0	0	0	0	1	1	0	400	4	1.05	0.95;
    186	1	0	0	0	0	1	1	0	400	4	1.05	0.95;
    187	1	0	0	0	0	1	1	0	400	4	1.05	0.95;
    188	2	12	30	0	0	1	1	0	220	4	1.11	0.95;
    189	2	23.8	60	0	0	1	1	0	220	4	1.11	0.95;
    190	2	38	64	0	0	1	1	0	400	4	1.05	0.95;
    191	1	0	0	0	0	1	1	0	220	4	1.11	0.95;
    192	1	0	0	0	0	1	1	0	220	4	1.11	0.95;
    193	1	0	0	0	0	1	1	0	220	4	1.11	0.95;
    194	1	0	0	0	0	1	1	0	220	4	1.11	0.95;
    195	1	0	0	0	0	1	1	0	220	4	1.11	0.95;
    196	1	0	0	0	0	1	1	0	220	4	1.11	0.95;
    197	1	0	0	0	0	1	1	0	400	4	1.05	0.95;
    198	1	0	0	0	0	1	1	0	220	4	1.11	0.95;
    199	1	0	0	0	0	1	1	0	220	4	1.11	0.95;
    200	1	0	0	0	0	1	1	0	220	4	1.11	0.95;
...
];

%% generator data
%	bus	Pg	Qg	Qmax	Qmin	Vg	mBase	status	Pmax	Pmin	Pc1	Pc2	Qc1min	Qc1max	Qc2min	Qc2max	ramp_agc	ramp_10	ramp_30	ramp_q	apf
mpc.gen = [
    22	180	22.85	162	-61	1.06818	235	1	221	110	0	0	0	0	0	0	0	0	0	0	0;
    23	180	35.93	140	-25	1.06818	235	1	200	140	0	0	0	0	0	0	0	0	0	0	0;
    35	0	0	190	-19	1.09545	426	0	370	240	0	0	0	0	0	0	0	0	0	0	0;
    35	0	0	190	-19	1.09545	426	0	370	240	0	0	0	0	0	0	0	0	0	0	0;
    35	345	147.04	190	-19	1.09545	426	1	370	240	0	0	0	0	0	0	0	0	0	0	0;
    36	370	85.3	190	-19	1.09545	426	1	370	240	0	0	0	0	0	0	0	0	0	0	0;
    36	320	85.3	190	-19	1.09545	426	1	370	240	0	0	0	0	0	0	0	0	0	0	0;
    37	370	34.92	190	-19	1.04	426	1	370	240	0	0	0	0	0	0	0	0	0	0	0;
    37	340	34.92	190	-19	1.04	426	1	370	240	0	0	0	0	0	0	0	0	0	0	0;
    37	340	34.92	190	-19	1.04	426	1	370	240	0	0	0	0	0	0	0	0	0	0	0;
    38	370	29.84	190	-19	1.04	426	1	370	240	0	0	0	0	0	0	0	0	0	0	0;
    38	340	29.84	190	-19	1.04	426	1	370	240	0	0	0	0	0	0	0	0	0	0	0;
    38	340	29.84	190	-19	1.04	426	1	370	240	0	0	0	0	0	0	0	0	0	0	0;
    55	205	86.71	152	-33	1.09091	235	1	215	110	0	0	0	0	0	0	0	0	0	0	0;
    55	0	0	152	-33	1.09091	235	0	220	125	0	0	0	0	0	0	0	0	0	0	0;
    56	0	0	149	-33	1.09091	235	0	225	125	0	0	0	0	0	0	0	0	0	0	0;
    56	205	87.71	149	-33	1.09091	235	1	225	110	0	0	0	0	0	0	0	0	0	0	0;
    57	225	85.6	149	-33	1.09091	235	1	225	110	0	0	0	0	0	0	0	0	0	0	0;
    57	185	85.6	149	-33	1.09091	235	1	225	120	0	0	0	0	0	0	0	0	0	0	0;
    58	330	195.71	363	-47	1.035	588	1	535	255	0	0	0	0	0	0	0	0	0	0	0;
    59	330	122.87	348	-100	1.035	588	1	560	250	0	0	0	0	0	0	0	0	0	0	0;
    68	210	-10.62	120	-14	1.08636	235	1	225	129	0	0	0	0	0	0	0	0	0	0	0;
    69	225	-5.94	120	-14	1.08636	235	1	225	129	0	0	0	0	0	0	0	0	0	0	0;
    69	195	-5.94	99	-10	1.08636	235	1	225	129	0	0	0	0	0	0	0	0	0	0	0;
    70	0	0	120	-14	1.0325	235	0	225	129	0	0	0	0	0	0	0	0	0	0	0;
    70	0	0	120	-14	1.0325	235	0	225	129	0	0	0	0	0	0	0	0	0	0	0;
    71	225	-7.81	99	-10	1.0325	235	1	225	129	0	0	0	0	0	0	0	0	0	0	0;
    71	215	-7.81	120	-14	1.0325	235	1	225	129	0	0	0	0	0	0	0	0	0	0	0;
    92	220	134.35	134	-7	1.08182	271	1	220	140	0	0	0	0	0	0	0	0	0	0	0;
    92	210	131	131	-6	1.08182	271	1	225	140	0	0	0	0	0	0	0	0	0	0	0;
    93	0	0	131	-6	1.08182	271	0	225	140	0	0	0	0	0	0	0	0	0	0	0;
    93	225	131.47	131	-6	1.08182	271	1	225	140	0	0	0	0	0	0	0	0	0	0	0;
    93	205	131.47	131	-6	1.08182	271	1	225	140	0	0	0	0	0	0	0	0	0	0	0;
    96	383	36.35	213	-30	1.0375	426	1	383	180	0	0	0	0	0	0	0	0	0	0	0;
    96	357	36.35	212	-31	1.0375	435	1	380	180	0	0	0	0	0	0	0	0	0	0	0;
    113	0	0	0	0	1.07727	12	0	12	0	0	0	0	0	0	0	0	0	0	0	0;
    113	0	0	0	0	1.07727	6	0	6	0	0	0	0	0	0	0	0	0	0	0	0;
    113	19	1.09	0	0	1.07727	26	1	21	0	0	0	0	0	0	0	0	0	0	0	0;
    119	215	89.14	120	-10	1.08182	271	1	225	120	0	0	0	0	0	0	0	0	0	0	0;
    120	215	92.04	120	-10	1.08182	271	1	225	120	0	0	0	0	0	0	0	0	0	0	0;
    121	115	52.14	73	-1	1.08182	150	1	120	70	0	0	0	0	0	0	0	0	0	0	0;
    122	115	52.7	73	-1	1.08182	150	1	120	70	0	0	0	0	0	0	0	0	0	0	0;
    132	0	0	79	0	1.07727	150	0	120	70	0	0	0	0	0	0	0	0	0	0	0;
    133	115	68.61	79	0	1.07727	150	1	120	70	0	0	0	0	0	0	0	0	0	0	0;
    134	105	28.62	31	0	1.07273	118	1	110	80	0	0	0	0	0	0	0	0	0	0	0;
    142	205	68.73	135	-35	1.08182	271	1	215	135	0	0	0	0	0	0	0	0	0	0	0;
    143	215	74.94	135	-35	1.08182	271	1	215	135	0	0	0	0	0	0	0	0	0	0	0;
    143	205	74.94	140	-35	1.08182	271	1	225	135	0	0	0	0	0	0	0	0	0	0	0;
    144	225	-2.8	140	-36	1.0375	271	1	225	135	0	0	0	0	0	0	0	0	0	0	0;
    144	205	-2.8	137	-36	1.0375	271	1	220	135	0	0	0	0	0	0	0	0	0	0	0;
    150	0	0	72	-29	1.04091	150	0	135	-135	0	0	0	0	0	0	0	0	0	0	0;
    150	0	0	72	-29	1.04091	150	0	135	-135	0	0	0	0	0	0	0	0	0	0	0;
    151	0	0	72	-29	1.04091	150	0	135	-135	0	0	0	0	0	0	0	0	0	0	0;
    151	0	0	72	-29	1.04091	150	0	135	-135	0	0	0	0	0	0	0	0	0	0	0;
    152	110	95.35	85	-15	1.06818	150	1	120	100	0	0	0	0	0	0	0	0	0	0	0;
    152	0	0	85	-15	1.06818	150	0	120	100	0	0	0	0	0	0	0	0	0	0	0;
    153	110	90.77	85	-15	1.06818	150	1	120	100	0	0	0	0	0	0	0	0	0	0	0;
    167	0	0	12	0	1.05	51	0	50	40	0	0	0	0	0	0	0	0	0	0	0;
    169	180	81.36	111	-21	1.08182	238	1	205	135	0	0	0	0	0	0	0	0	0	0	0;
    170	0	0	102	-15	1.08182	252	0	222	90	0	0	0	0	0	0	0	0	0	0	0;
    170	0	0	111	-21	1.08182	238	0	205	135	0	0	0	0	0	0	0	0	0	0	0;
    170	180	62.03	119	-31	1.08182	252	1	232	100	0	0	0	0	0	0	0	0	0	0	0;
    171	200	94.05	102	-15	1.0325	252	1	222	90	0	0	0	0	0	0	0	0	0	0	0;
    172	0	0	93	-10	1.0325	252	0	232	100	0	0	0	0	0	0	0	0	0	0	0;
    172	200	91.8	102	-15	1.0325	252	1	222	90	0	0	0	0	0	0	0	0	0	0	0;
    177	261	115.11	127	-35	1.09091	287	1	261	104	0	0	0	0	0	0	0	0	0	0	0;
    177	189	115.11	145	-38	1.09091	264	1	235	94	0	0	0	0	0	0	0	0	0	0	0;
    178	0	0	103	-17	1.09091	238	0	206	120	0	0	0	0	0	0	0	0	0	0	0;
    178	235	116	145	-38	1.09091	264	1	235	94	0	0	0	0	0	0	0	0	0	0	0;
    178	220	116	127	-35	1.09091	287	1	261	104	0	0	0	0	0	0	0	0	0	0	0;
    178	220	116	127	-35	1.09091	287	1	261	104	0	0	0	0	0	0	0	0	0	0	0;
    180	206	100.5	103	-17	1.03	238	1	206	120	0	0	0	0	0	0	0	0	0	0	0;
    180	194	100.5	103	-17	1.03	238	1	206	120	0	0	0	0	0	0	0	0	0	0	0;
    188	180	111.49	112	-32	1.05455	233	1	225	150	0	0	0	0	0	0	0	0	0	0	0;
    189	200	112.18	112	-32	1.05455	233	1	200	150	0	0	0	0	0	0	0	0	0	0	0;
    189	0	0	112	-32	1.05455	233	0	200	150	0	0	0	0	0	0	0	0	0	0	0;
    189	160	112.18	112	-32	1.05455	233	1	200	150	0	0	0	0	0	0	0	0	0	0	0;
    190	400	255.32	294	-259	1.005	464	1	464	186	0	0	0	0	0	0	0	0	0	0	0;
    204	0	0	100	0	1	218	0	188	76	0	0	0	0	0	0	0	0	0	0	0;
    236	179	33.19	105	-62	1.0375	209	1	179	-200	0	0	0	0	0	0	0	0	0	0	0;
    236	89.5	33.19	105	-62	1.0375	209	1	179	-200	0	0	0	0	0	0	0	0	0	0	0;
    236	89.5	33.19	130	-75	1.0375	209	1	179	-200	0	0	0	0	0	0	0	0	0	0	0;
    237	0	41.49	160	-100	1.0375	209	1	179	-200	0	0	0	0	0	0	0	0	0	0	0;
    240	224	34.78	150	0	1.09091	156	1	250	113	0	0	0	0	0	0	0	0	0	0	0;
    250	0	0	20	0	1.08182	79	0	55	23	0	0	0	0	0	0	0	0	0	0	0;
    250	0	0	20	0	1.08182	69	0	50	25	0	0	0	0	0	0	0	0	0	0	0;
    251	15	9.77	20	0	1.08182	28	1	23	7	0	0	0	0	0	0	0	0	0	0	0;
    251	0	0	20	0	1.08182	69	0	50	25	0	0	0	0	0	0	0	0	0	0	0;
    267	1.5	1	1	0	1.07273	1	1	2	0	0	0	0	0	0	0	0	0	0	0	0;
    268	1.6	1.15	1	0	1.06364	1	1	2	0	0	0	0	0	0	0	0	0	0	0	0;
    282	0	0	5	0	1.07273	10	0	7	6	0	0	0	0	0	0	0	0	0	0	0;
    283	0	0	5	0	1.07273	10	0	7	6	0	0	0	0	0	0	0	0	0	0	0;
    301	5	2.99	3.75	0	1.04545	5	1	5	1	0	0	0	0	0	0	0	0	0	0	0;
    301	1.68	2.99	3.75	0	1.04545	5	1	5	1	0	0	0	0	0	0	0	0	0	0	0;
    301	1.68	2.99	3.75	0	1.04545	5	1	5	1	0	0	0	0	0	0	0	0	0	0	0;
    302	2.79	0.14	3.75	0	1.04545	5	1	5	1	0	0	0	0	0	0	0	0	0	0	0;
    316	350	190.13	190	-19	1	426	1	370	240	0	0	0	0	0	0	0	0	0	0	0;
    322	0	0	2	0	1.03636	4	0	6	1	0	0	0	0	0	0	0	0	0	0	0;
    322	0	0	2	0	1.03636	4	0	6	1	0	0	0	0	0	0	0	0	0	0	0;
    369	9.16	0.44	4	0	1.07273	30	1	30	0	0	0	0	0	0	0	0	0	0	0	0;
    398	0	0	5	0	1.08182	8	0	7	5	0	0	0	0	0	0	0	0	0	0	0;
    402	0.9	1.11	1	0	1.08182	1	1	1	0	0	0	0	0	0	0	0	0	0	0	0;
    402	0.55	1.11	1	0	1.08182	1	1	1	0	0	0	0	0	0	0	0	0	0	0	0;
    402	0.55	1.11	1	0	1.08182	1	1	1	0	0	0	0	0	0	0	0	0	0	0	0;
    409	0	0	7	0	1.07545	31	0	27	11	0	0	0	0	0	0	0	0	0	0	0;
    409	20	7.51	7	0	1.07545	39	1	30	11	0	0	0	0	0	0	0	0	0	0	0;
    409	0	0	6	0	1.07545	41	0	30	9	0	0	0	0	0	0	0	0	0	0	0;
    411	0	0	15	0	1.07273	69	0	55	20	0	0	0	0	0	0	0	0	0	0	0;
    411	20	15.24	15	0	1.07273	69	1	55	20	0	0	0	0	0	0	0	0	0	0	0;
    412	0	0	15	0	1.07273	49	0	40	10	0	0	0	0	0	0	0	0	0	0	0;
    412	0	0	15	0	1.07273	69	0	55	20	0	0	0	0	0	0	0	0	0	0	0;
    414	0	0	20	0	1.07273	69	0	50	25	0	0	0	0	0	0	0	0	0	0	0;
    414	0	0	20	0	1.07273	147	0	100	55	0	0	0	0	0	0	0	0	0	0	0;
    415	30	1.18	40	0	1.07273	69	1	60	25	0	0	0	0	0	0	0	0	0	0	0;
    428	2	3.06	3	0	1.07273	4	1	3	2	0	0	0	0	0	0	0	0	0	0	0;
    466	0	0	1	0	1.06364	2	0	2	1	0	0	0	0	0	0	0	0	0	0	0;
    492	38	24.55	57	-22	1.07273	69	1	52	15	0	0	0	0	0	0	0	0	0	0	0;
    493	47	20.36	57	-22	1.07273	69	1	55	15	0	0	0	0	0	0	0	0	0	0	0;
    494	47	23.02	57	-22	1.08182	69	1	55	15	0	0	0	0	0	0	0	0	0	0	0;
    494	15	23.02	57	-22	1.08182	69	1	55	15	0	0	0	0	0	0	0	0	0	0	0;
    495	55	16.82	57	-22	1.07273	69	1	55	15	0	0	0	0	0	0	0	0	0	0	0;
    495	15	16.82	71	-28	1.07273	88	1	77	3	0	0	0	0	0	0	0	0	0	0	0;
    517	180	28.36	162	-61	1.09091	235	1	226	120	0	0	0	0	0	0	0	0	0	0	0;
    517	0	0	12	0	1.09091	49	0	25	12	0	0	0	0	0	0	0	0	0	0	0;
    518	15	13.57	12	0	1.1	49	1	17	10	0	0	0	0	0	0	0	0	0	0	0;
    522	0	0	2	0	1.06364	6	0	4	4	0	0	0	0	0	0	0	0	0	0	0;
    542	0.3	1.36	0.2	0	1.08182	0	1	0	0	0	0	0	0	0	0	0	0	0	0	0;
    571	0	0	4	0	1.04545	8	0	7	3	0	0	0	0	0	0	0	0	0	0	0;
    580	0	0	3	0	1.08182	5	0	3	3	0	0	0	0	0	0	0	0	0	0	0;
    587	4	6.34	4.7	3.8	1.06364	7	1	7	1	0	0	0	0	0	0	0	0	0	0	0;
    587	1	6.34	4.7	3.8	1.06364	7	1	7	1	0	0	0	0	0	0	0	0	0	0	0;
    587	0	0	4.7	3.8	1.06364	7	0	7	1	0	0	0	0	0	0	0	0	0	0	0;
    599	2.5	2.02	2	0	1.07273	4	1	3	2	0	0	0	0	0	0	0	0	0	0	0;
    633	0	0	2	0	1.02727	5	0	4	3	0	0	0	0	0	0	0	0	0	0	0;
    663	1	0.32	0.7	0	1.05455	2	1	2	1	0	0	0	0	0	0	0	0	0	0	0;
    663	0	0	0.7	0	1.05455	2	0	2	1	0	0	0	0	0	0	0	0	0	0	0;
    669	0	0	3	0	1.06364	6	0	4	3	0	0	0	0	0	0	0	0	0	0	0;
    740	52	17.63	35	2	1.05455	63	1	52	37	0	0	0	0	0	0	0	0	0	0	0;
    740	0	0	23	2	1.05455	38	0	30	10	0	0	0	0	0	0	0	0	0	0	0;
    740	0	0	85	6	1.05455	150	0	105	50	0	0	0	0	0	0	0	0	0	0	0;
    740	58	17.63	85	6	1.05455	150	1	105	50	0	0	0	0	0	0	0	0	0	0	0;
    741	0	0	23	2	1.05455	38	0	30	10	0	0	0	0	0	0	0	0	0	0	0;
    741	0	0	23	2	1.05455	38	0	30	10	0	0	0	0	0	0	0	0	0	0	0;
    741	30	25	25	2	1.05455	38	1	30	10	0	0	0	0	0	0	0	0	0	0	0;
    741	70	27.57	85	6	1.05455	150	1	125	68	0	0	0	0	0	0	0	0	0	0	0;
    741	0	0	85	6	1.05455	150	0	105	50	0	0	0	0	0	0	0	0	0	0	0;
    762	1.4	2.56	0.7	0	1.04545	2	1	2	1	0	0	0	0	0	0	0	0	0	0	0;
    764	1	1.05	1	0	1.06364	4	1	1	0	0	0	0	0	0	0	0	0	0	0	0;
    772	0	0	18	2	1.05455	38	0	35	9	0	0	0	0	0	0	0	0	0	0	0;
    772	20	18.87	30	2	1.05455	38	1	20	9	0	0	0	0	0	0	0	0	0	0	0;
    773	0	0	18	2	1.05455	38	0	35	9	0	0	0	0	0	0	0	0	0	0	0;
    773	0	0	18	2	1.05455	38	0	35	9	0	0	0	0	0	0	0	0	0	0	0;
    773	0	0	18	2	1.05455	38	0	35	9	0	0	0	0	0	0	0	0	0	0	0;
    773	80	90.04	65	6	1.05455	121	1	97	30	0	0	0	0	0	0	0	0	0	0	0;
    774	0	0	18	2	1.05455	38	0	35	9	0	0	0	0	0	0	0	0	0	0	0;
    774	0	0	18	2	1.05455	38	0	30	9	0	0	0	0	0	0	0	0	0	0	0;
    774	0	0	14	2	1.05455	32	0	28	9	0	0	0	0	0	0	0	0	0	0	0;
    809	1	1.23	4	0	1.07273	5	1	8	1	0	0	0	0	0	0	0	0	0	0	0;
    809	0	0	2	0	1.07273	2	0	2	1	0	0	0	0	0	0	0	0	0	0	0;
    829	0	0	4.5	0.2	1.04545	6	0	4	4	0	0	0	0	0	0	0	0	0	0	0;
    844	2.5	1.03	0	0	1.07273	6	1	3	0	0	0	0	0	0	0	0	0	0	0	0;
    853	0	0	0	0	1.06364	4	0	5	0	0	0	0	0	0	0	0	0	0	0	0;
    876	93	4.21	30	0	1.08182	65	1	93	0	0	0	0	0	0	0	0	0	0	0	0;
    876	12	4.21	30	0	1.08182	65	1	36	0	0	0	0	0	0	0	0	0	0	0	0;
    879	0	0	0	0	1.06364	12	0	3	0	0	0	0	0	0	0	0	0	0	0	0;
    886	0	0	0	0	1.08182	5	0	6	0	0	0	0	0	0	0	0	0	0	0	0;
    887	0	0	0	0	1.08182	6	0	6	0	0	0	0	0	0	0	0	0	0	0	0;
    922	205	61.56	149	-33	1.09091	235	1	225	135	0	0	0	0	0	0	0	0	0	0	0;
    923	0	0	149	-33	1.09091	235	0	225	110	0	0	0	0	0	0	0	0	0	0	0;
    931	0	0	0	0	1.07273	3	0	3	0	0	0	0	0	0	0	0	0	0	0	0;
    937	0	0	0	0	1.07273	12	0	12	0	0	0	0	0	0	0	0	0	0	0	0;
    947	0	0	30	0	1.07273	168	0	170	66	0	0	0	0	0	0	0	0	0	0	0;
    947	0	0	30	0	1.07273	72	0	61	34	0	0	0	0	0	0	0	0	0	0	0;
    953	0	0	0	0	1.07273	8	0	21	0	0	0	0	0	0	0	0	0	0	0	0;
    967	0	0	0	0	1.07273	6	0	7	0	0	0	0	0	0	0	0	0	0	0	0;
    970	0	0	0	0	1.08182	3	0	10	0	0	0	0	0	0	0	0	0	0	0	0;
    985	8.5	4.45	0	0	1.08182	3	1	30	0	0	0	0	0	0	0	0	0	0	0	0;
    990	0.3	-1.29	0	0	1.06364	1	1	2	0	0	0	0	0	0	0	0	0	0	0	0;
    995	0	0	0	0	1.06364	1	0	2	0	0	0	0	0	0	0	0	0	0	0	0;
    1006	0	0	0	0	1.06364	2	0	2	1	0	0	0	0	0	0	0	0	0	0	0;
    1011	190	0.58	120	-14	1.09091	235	1	225	129	0	0	0	0	0	0	0	0	0	0	0;
    1013	0	0	30	0	1.06364	37	0	36	0	0	0	0	0	0	0	0	0	0	0	0;
    1016	0	0	0	0	1.07273	3	0	3	2	0	0	0	0	0	0	0	0	0	0	0;
    1036	0	0	30	0	1.08182	101	0	101	49	0	0	0	0	0	0	0	0	0	0	0;
    1042	0	0	0	0	1.06364	2	0	12	0	0	0	0	0	0	0	0	0	0	0	0;
    1057	6.1	5.14	30	0	1.07273	10	1	12	0	0	0	0	0	0	0	0	0	0	0	0;
    1060	0	0	0	0	1.08182	2	0	2	1	0	0	0	0	0	0	0	0	0	0	0;
    1062	0	0	0	0	1.07273	6	0	6	1	0	0	0	0	0	0	0	0	0	0	0;
    1067	5	-0.33	0	0	1.08182	11	1	8	0	0	0	0	0	0	0	0	0	0	0	0;
    1071	0	0	23	0	1.09091	52	0	68	5	0	0	0	0	0	0	0	0	0	0	0;
    1071	60	10.56	23	0	1.09091	52	1	68	5	0	0	0	0	0	0	0	0	0	0	0;
    1071	0	0	11	0	1.09091	25	0	31	-32	0	0	0	0	0	0	0	0	0	0	0;
    1071	0	0	10	0	1.09091	25	0	31	-32	0	0	0	0	0	0	0	0	0	0	0;
    1086	0	0	24	-1	1.08182	69	0	50	8	0	0	0	0	0	0	0	0	0	0	0;
    1086	110	7.63	74	-15	1.08182	58	1	125	92	0	0	0	0	0	0	0	0	0	0	0;
    1087	110	50.94	74	-15	1.08182	58	1	125	85	0	0	0	0	0	0	0	0	0	0	0;
    1087	0	0	28	-2	1.08182	40	0	41	12	0	0	0	0	0	0	0	0	0	0	0;
    1099	0	0	0	0	1.08182	3	0	3	0	0	0	0	0	0	0	0	0	0	0	0;
    1126	0	0	0	0	1.06364	4	0	3	2	0	0	0	0	0	0	0	0	0	0	0;
    1132	31	14.23	0	0	1.08182	31	1	31	0	0	0	0	0	0	0	0	0	0	0	0;
...
];

%% branch data
%	fbus	tbus	r	x	b	rateA	rateB	rateC	ratio	angle	status	angmin	angmax
mpc.branch = [
    9	11	0.00064	0.0305	0	400	400	400	1.09271	0	1	-360	360;
    13	12	0.00069	0.03946	0	250	250	250	0.9999	0	1	-360	360;
    20	18	0.00088	0.05709	0	330	330	330	0.9999	0	1	-360	360;
    34	33	0.0007	0.03652	0	250	250	250	0.9999	0	1	-360	360;
    35	37	0.00036	0.02519	0	500	500	500	1.07313	0	1	-360	360;
    36	38	0.00036	0.02519	0	500	500	500	1.07313	0	1	-360	360;
    53	54	0.00034	0.02097	0	500	500	500	1.0755	0	1	-360	360;
    57	59	0.00034	0.02097	0	500	500	500	1.07313	0	1	-360	360;
    68	70	0.00081	0.03	0	400	400	400	1.10102	0	1	-360	360;
    105	107	0.00075	0.02445	-0.00832	330	330	330	1.039	0	1	-360	360;
    106	108	0.0004	0.0253	0	500	500	500	1.0457	0	1	-360	360;
    142	145	0.00053	0.02875	-0.016	400	400	400	1.06299	0	1	-360	360;
    170	171	0.00064	0.0305	0	400	400	400	1.07408	0	1	-360	360;
    177	180	0.00023	0.023	0	500	500	500	1.07426	0	1	-360	360;
    178	181	0.00023	0.023	0	500	500	500	1.07426	0	1	-360	360;
    185	184	0.00032	0.04392	0	330	330	330	0.9999	0	1	-360	360;
    188	190	0.0003	0.02732	0	500	500	500	1.10037	0	1	-360	360;
    195	197	0.00035	0.02375	0	500	500	500	1.08671	0	1	-360	360;
    208	209	0.00051	0.0275	0	400	400	400	1.07702	0	1	-360	360;
    213	211	0.00084	0.06858	0	250	250	250	0.9999	0	1	-360	360;
    216	218	0.00033	0.02711	0	500	500	500	1.08613	0	1	-360	360;
    220	218	0.00032	0.0464	0	330	330	330	0.9999	0	1	-360	360;
    227	225	0.00113	0.05647	0	330	330	330	0.9999	0	1	-360	360;
    224	226	0.00075	0.02469	-0.008	330	330	330	1.04544	0	1	-360	360;
    3116	180	0.00029	0.00317	0.09184	1386	1386	1386	0	0	1	-360	360;
    3116	181	0.0003	0.00326	0.09536	1386	1386	1386	0	0	1	-360	360;
    240	82	0.01475	0.08595	0.13036	339	339	339	0	0	1	-360	360;
    3114	90	0.01244	0.06959	0.10842	412	412	412	0	0	1	-360	360;
    3114	120	0.01207	0.06905	0.11519	412	412	412	0	0	1	-360	360;
    144	3115	0.00168	0.01603	0.51488	1206	1206	1206	0	0	1	-360	360;
    3117	169	0.0018	0.01616	0.0484	436	436	436	0	0	1	-360	360;
    3117	170	0.0018	0.01616	0.0484	436	436	436	0	0	1	-360	360;
    3118	61	0.00223	0.02209	0.69011	831	831	831	0	0	1	-360	360;
    3118	62	0.00223	0.02209	0.69011	831	831	831	0	0	1	-360	360;
    97	3113	0.00293	0.03054	0.95472	1206	1206	1206	0	0	1	-360	360;
    56	28	0.01174	0.07014	0.12689	339	339	339	0	0	1	-360	360;
    35	105	0.00919	0.06614	0.10451	375	375	375	0	0	1	-360	360;
    36	106	0.00822	0.05767	0.0982	400	400	400	0	0	1	-360	360;
    167	39	0.01698	0.12459	0.1957	231	231	231	0	0	1	-360	360;
    153	46	0.01298	0.06738	0.10284	250	250	250	0	0	1	-360	360;
    152	25	0.01068	0.0475	0.09495	339	339	339	0	0	1	-360	360;
    188	26	0.01436	0.10729	0.16081	231	231	231	0	0	1	-360	360;
    53	124	0.01488	0.08161	0.1148	266	266	266	0	0	1	-360	360;
    52	106	0.01116	0.07171	0.10367	267	267	267	0	0	1	-360	360;
    203	98	0.00552	0.05948	0.17077	317	317	317	0	0	1	-360	360;
    234	189	0.01118	0.06597	0.10778	267	267	267	0	0	1	-360	360;
    221	188	0.01682	0.08909	0.12993	295	295	295	0	0	1	-360	360;
    222	189	0.01384	0.08702	0.13484	295	295	295	0	0	1	-360	360;
    238	192	0.01517	0.09938	0.14492	197	197	197	0	0	1	-360	360;
    57	14	0.01457	0.07362	0.13344	356	356	356	0	0	1	-360	360;
    229	23	0.01403	0.10413	0.15949	231	231	231	0	0	1	-360	360;
    115	68	0.00374	0.0438	0.10096	476	476	476	0	0	1	-360	360;
    187	97	0.00194	0.02007	0.54307	970	970	970	0	0	1	-360	360;
    58	12	0.0015	0.01506	0.4032	1154	1154	1154	0	0	1	-360	360;
    210	171	0.00296	0.03484	0.9296	838	838	838	0	0	1	-360	360;
    136	70	0.00169	0.01931	0.53814	866	866	866	0	0	1	-360	360;
    38	108	0.00137	0.01569	0.43744	1154	1154	1154	0	0	1	-360	360;
    37	139	0.00234	0.02677	0.74653	1154	1154	1154	0	0	1	-360	360;
    32	218	0.00217	0.02513	0.67098	1154	1154	1154	0	0	1	-360	360;
    136	78	0.00152	0.01739	0.48083	866	866	866	0	0	1	-360	360;
    138	78	0.00468	0.05347	1.48883	831	831	831	0	0	1	-360	360;
    97	41	0.00355	0.03617	0.95894	717	717	717	0	0	1	-360	360;
    107	41	0.00097	0.01052	0.28395	970	970	970	0	0	1	-360	360;
    61	137	0.00144	0.01446	0.51213	1386	1386	1386	0	0	1	-360	360;
    15	6	0.013	0.09781	0.14013	375	375	375	0	0	1	-360	360;
    40	15	0.00525	0.03847	0.06053	231	231	231	0	0	1	-360	360;
    31	6	0.00457	0.03351	0.05245	317	317	317	0	0	1	-360	360;
    22	9	0.01469	0.10915	0.16676	317	317	317	0	0	1	-360	360;
    27	14	0.01262	0.09326	0.14324	231	231	231	0	0	1	-360	360;
    35	7	0.00924	0.05052	0.07698	295	295	295	0	0	1	-360	360;
    22	3	0.01068	0.07936	0.12155	231	231	231	0	0	1	-360	360;
    35	25	0.00585	0.04027	0.07161	400	400	400	0	0	1	-360	360;
    36	24	0.00585	0.04027	0.07161	400	400	400	0	0	1	-360	360;
    14	8	0.00558	0.04147	0.0629	231	231	231	0	0	1	-360	360;
    43	15	0.00089	0.0063	0.0108	231	231	231	0	0	1	-360	360;
    29	15	0.00442	0.02374	0.04477	339	339	339	0	0	1	-360	360;
    45	7	0.00494	0.0269	0.04225	250	250	250	0	0	1	-360	360;
    24	6	0.00287	0.01671	0.02467	295	295	295	0	0	1	-360	360;
    35	1	0.0012	0.0089	0.01512	461	461	461	0	0	1	-360	360;
    36	2	0.0012	0.0089	0.01513	461	461	461	0	0	1	-360	360;
    36	30	0.00399	0.02901	0.04808	380	380	380	0	0	1	-360	360;
    32	12	0.00298	0.03445	0.94221	831	831	831	0	0	1	-360	360;
    37	32	0.00358	0.04122	1.13382	1154	1154	1154	0	0	1	-360	360;
    19	38	0.00342	0.03928	1.08288	1154	1154	1154	0	0	1	-360	360;
    11	21	0.00286	0.03355	0.90157	838	838	838	0	0	1	-360	360;
    44	21	0.00023	0.00264	0.07296	838	838	838	0	0	1	-360	360;
    11	19	0.0011	0.01271	0.35206	838	838	838	0	0	1	-360	360;
    184	38	0.00139	0.0159	0.44176	838	838	838	0	0	1	-360	360;
    77	72	0.01054	0.06151	0.09306	197	197	197	0	0	1	-360	360;
    74	69	0.00905	0.06723	0.10296	231	231	231	0	0	1	-360	360;
    81	47	0.0114	0.06587	0.09975	274	274	274	0	0	1	-360	360;
    64	47	0.0107	0.06628	0.10825	287	287	287	0	0	1	-360	360;
    72	55	0.00543	0.03733	0.06668	341	341	341	0	0	1	-360	360;
    73	57	0.00543	0.03733	0.06668	341	341	341	0	0	1	-360	360;
    73	47	0.00657	0.0481	0.0727	319	319	319	0	0	1	-360	360;
    82	65	0.00302	0.0201	0.03069	339	339	339	0	0	1	-360	360;
    65	51	0.007	0.05138	0.08084	231	231	231	0	0	1	-360	360;
    49	68	0.00329	0.02506	0.0439	317	317	317	0	0	1	-360	360;
    50	48	0.00789	0.05868	0.08985	231	231	231	0	0	1	-360	360;
    69	50	0.00558	0.04062	0.06491	341	341	341	0	0	1	-360	360;
    81	49	0.00452	0.03366	0.05156	341	341	341	0	0	1	-360	360;
    81	80	0.00134	0.00996	0.01337	287	287	287	0	0	1	-360	360;
    76	55	0.00618	0.04353	0.07649	341	341	341	0	0	1	-360	360;
    77	56	0.00618	0.04353	0.07649	266	266	266	0	0	1	-360	360;
    76	52	0.01219	0.0637	0.09333	266	266	266	0	0	1	-360	360;
    75	53	0.00246	0.01826	0.02798	231	231	231	0	0	1	-360	360;
    60	52	0.00242	0.01531	0.02249	287	287	287	0	0	1	-360	360;
    63	59	0.0017	0.01977	0.53386	838	838	838	0	0	1	-360	360;
    71	67	0.00116	0.013	0.33856	838	838	838	0	0	1	-360	360;
    54	70	0.00218	0.02536	0.68579	838	838	838	0	0	1	-360	360;
    78	71	0.00105	0.01123	0.28195	1119	1119	1119	0	0	1	-360	360;
    62	79	0.00119	0.01428	0.36666	1154	1154	1154	0	0	1	-360	360;
    66	58	0.00184	0.02139	0.5777	838	838	838	0	0	1	-360	360;
    111	142	0.00488	0.03362	0.05961	341	341	341	0	0	1	-360	360;
    89	122	0.01093	0.05919	0.08439	180	180	180	0	0	1	-360	360;
    122	109	0.00194	0.01415	0.0223	341	341	341	0	0	1	-360	360;
    93	148	0.00192	0.01355	0.023	341	341	341	0	0	1	-360	360;
    148	100	0.00238	0.01667	0.02846	341	341	341	0	0	1	-360	360;
    149	147	0.00066	0.00496	0.00758	319	319	319	0	0	1	-360	360;
    121	149	0.00537	0.04039	0.06005	319	319	319	0	0	1	-360	360;
    106	149	0.00083	0.00525	0.00868	250	250	250	0	0	1	-360	360;
    115	135	0.01589	0.0832	0.11439	266	266	266	0	0	1	-360	360;
    95	128	0.00217	0.01459	0.02575	197	197	197	0	0	1	-360	360;
    132	116	0.01773	0.11678	0.16361	250	250	250	0	0	1	-360	360;
    143	88	0.00593	0.04093	0.07215	341	341	341	0	0	1	-360	360;
    123	105	0.0039	0.02847	0.04498	317	317	317	0	0	1	-360	360;
    134	93	0.00816	0.04242	0.0612	314	314	314	0	0	1	-360	360;
    135	92	0.00816	0.04242	0.0612	314	314	314	0	0	1	-360	360;
    93	90	0.00519	0.03839	0.05875	400	400	400	0	0	1	-360	360;
    92	87	0.00213	0.01403	0.0226	250	250	250	0	0	1	-360	360;
    129	92	0.00463	0.02775	0.04612	267	267	267	0	0	1	-360	360;
    118	86	0.01122	0.07074	0.11571	180	180	180	0	0	1	-360	360;
    125	133	0.00601	0.04147	0.07364	308	308	308	0	0	1	-360	360;
    106	83	0.00207	0.01279	0.02055	197	197	197	0	0	1	-360	360;
    101	105	0.00136	0.0099	0.01586	400	400	400	0	0	1	-360	360;
    146	102	0.00058	0.00417	0.00684	341	341	341	0	0	1	-360	360;
    150	90	0.00085	0.00632	0.00931	457	457	457	0	0	1	-360	360;
    151	91	0.00085	0.00612	0.00964	457	457	457	0	0	1	-360	360;
    117	91	0.00159	0.01112	0.01913	396	396	396	0	0	1	-360	360;
    142	119	0.00314	0.02159	0.03839	341	341	341	0	0	1	-360	360;
    143	126	0.00455	0.03157	0.05531	231	231	231	0	0	1	-360	360;
    119	99	0.00145	0.01008	0.01719	231	231	231	0	0	1	-360	360;
    120	110	0.00384	0.02721	0.04517	231	231	231	0	0	1	-360	360;
    127	94	0.00777	0.04128	0.06391	197	197	197	0	0	1	-360	360;
    104	92	0.00446	0.03041	0.04867	180	180	180	0	0	1	-360	360;
    133	123	0.00589	0.03506	0.05235	267	267	267	0	0	1	-360	360;
    124	114	0.00316	0.02378	0.03527	231	231	231	0	0	1	-360	360;
    132	93	0.00184	0.0126	0.0224	231	231	231	0	0	1	-360	360;
    121	103	0.00171	0.00961	0.01424	250	250	250	0	0	1	-360	360;
    113	93	0.00341	0.02442	0.03997	317	317	317	0	0	1	-360	360;
    133	92	0.00184	0.0126	0.02239	231	231	231	0	0	1	-360	360;
    98	112	0.0057	0.04149	0.06617	341	341	341	0	0	1	-360	360;
    141	134	0.00461	0.02492	0.0356	266	266	266	0	0	1	-360	360;
    140	125	0.00215	0.01333	0.02211	250	250	250	0	0	1	-360	360;
    115	85	0.00079	0.00488	0.00726	137	137	137	0	0	1	-360	360;
    116	84	0.00079	0.00488	0.00724	137	137	137	0	0	1	-360	360;
    108	144	0.00241	0.02782	0.77066	1154	1154	1154	0	0	1	-360	360;
    97	145	0.00213	0.02432	0.67744	1240	1240	1240	0	0	1	-360	360;
    138	130	0.00091	0.0104	0.28989	838	838	838	0	0	1	-360	360;
    139	137	0.00312	0.03563	0.99107	831	831	831	0	0	1	-360	360;
    130	145	0.00092	0.01051	0.29293	838	838	838	0	0	1	-360	360;
    198	177	0.01039	0.08983	0.11422	375	375	375	0	0	1	-360	360;
    199	178	0.01039	0.08983	0.11422	375	375	375	0	0	1	-360	360;
    201	177	0.01455	0.0813	0.13279	267	267	267	0	0	1	-360	360;
    202	178	0.01455	0.0813	0.13279	267	267	267	0	0	1	-360	360;
    156	202	0.00519	0.03965	0.05836	317	317	317	0	0	1	-360	360;
    156	166	0.00083	0.00645	0.00951	317	317	317	0	0	1	-360	360;
    189	161	0.01105	0.08107	0.12824	341	341	341	0	0	1	-360	360;
    157	177	0.00597	0.04473	0.06735	317	317	317	0	0	1	-360	360;
    196	198	0.01736	0.10969	0.16268	287	287	287	0	0	1	-360	360;
    173	199	0.00938	0.06093	0.08934	339	339	339	0	0	1	-360	360;
    176	178	0.01246	0.09134	0.14349	400	400	400	0	0	1	-360	360;
    154	158	0.00514	0.03826	0.05933	231	231	231	0	0	1	-360	360;
    169	164	0.01062	0.0789	0.12085	317	317	317	0	0	1	-360	360;
    175	205	0.00769	0.0569	0.08673	231	231	231	0	0	1	-360	360;
    175	204	0.00225	0.01667	0.02541	286	286	286	0	0	1	-360	360;
    196	168	0.01851	0.1088	0.14435	250	250	250	0	0	1	-360	360;
    200	195	0.00236	0.01411	0.02031	229	229	229	0	0	1	-360	360;
    195	161	0.00355	0.02607	0.04096	341	341	341	0	0	1	-360	360;
    196	191	0.013	0.07589	0.11484	267	267	267	0	0	1	-360	360;
    195	174	0.00934	0.0539	0.08683	287	287	287	0	0	1	-360	360;
    168	152	0.00698	0.0374	0.05463	314	314	314	0	0	1	-360	360;
    167	153	0.00436	0.03202	0.0503	400	400	400	0	0	1	-360	360;
    188	168	0.0006	0.00351	0.00555	341	341	341	0	0	1	-360	360;
    189	167	0.0006	0.00351	0.00555	341	341	341	0	0	1	-360	360;
    176	164	0.01058	0.07762	0.12203	231	231	231	0	0	1	-360	360;
    182	169	0.00469	0.03486	0.05338	317	317	317	0	0	1	-360	360;
    170	162	0.00568	0.04012	0.07033	317	317	317	0	0	1	-360	360;
    193	162	0.00105	0.00733	0.01258	231	231	231	0	0	1	-360	360;
    194	182	0.00744	0.05397	0.09307	231	231	231	0	0	1	-360	360;
    202	155	0.00221	0.01618	0.02541	231	231	231	0	0	1	-360	360;
    203	201	0.00525	0.03837	0.06052	231	231	231	0	0	1	-360	360;
    206	198	0.00236	0.01746	0.02676	341	341	341	0	0	1	-360	360;
    180	159	0.00274	0.02778	0.69846	717	717	717	0	0	1	-360	360;
    186	160	0.00171	0.01741	0.45456	717	717	717	0	0	1	-360	360;
    184	187	0.00136	0.01599	0.41965	1240	1240	1240	0	0	1	-360	360;
    197	172	0.00373	0.04344	1.172	831	831	831	0	0	1	-360	360;
    214	222	0.02738	0.14254	0.20047	222	222	222	0	0	1	-360	360;
    228	234	0.02709	0.15992	0.26125	197	197	197	0	0	1	-360	360;
    215	239	0.01909	0.11277	0.16673	197	197	197	0	0	1	-360	360;
...
];

%%-----  OPF Data  -----%%
%% generator cost data
%	1	startup	shutdown	n	x1	y1	...	xn	yn
%	2	startup	shutdown	n	c(n-1)	...	c0
mpc.gencost = [
    2	0	0	3	0	158.61	0;
    2	0	0	3	0	158.61	0;
    2	0	0	3	0	107.03	0;
    2	0	0	3	0	107.03	0;
    2	0	0	3	0	107.03	0;
    2	0	0	3	0	107.03	0;
    2	0	0	3	0	107.03	0;
    2	0	0	3	0	107.03	0;
    2	0	0	3	0	107.03	0;
    2	0	0	3	0	107.03	0;
    2	0	0	3	0	107.03	0;
    2	0	0	3	0	107.03	0;
    2	0	0	3	0	107.03	0;
    2	0	0	3	0	143.52	0;
    2	0	0	3	0	143.52	0;
    2	0	0	3	0	143.52	0;
    2	0	0	3	0	143.52	0;
    2	0	0	3	0	143.52	0;
    2	0	0	3	0	143.52	0;
    2	0	0	3	0	143.52	0;
    2	0	0	3	0	143.52	0;
    2	0	0	3	0	148.16	0;
    2	0	0	3	0	148.16	0;
    2	0	0	3	0	148.16	0;
    2	0	0	3	0	148.16	0;
    2	0	0	3	0	148.16	0;
    2	0	0	3	0	148.16	0;
    2	0	0	3	0	148.16	0;
    2	0	0	3	0	134.04	0;
    2	0	0	3	0	134.04	0;
    2	0	0	3	0	134.04	0;
    2	0	0	3	0	134.04	0;
    2	0	0	3	0	134.04	0;
    2	0	0	3	0	126.62	0;
    2	0	0	3	0	126.62	0;
    2	0	0	3	0	0	0;
    2	0	0	3	0	0	0;
    2	0	0	3	0	0	0;
    2	0	0	3	0	130.49	0;
    2	0	0	3	0	130.49	0;
    2	0	0	3	0	132.33	0;
    2	0	0	3	0	132.33	0;
    2	0	0	3	0	136.59	0;
    2	0	0	3	0	136.59	0;
    2	0	0	3	0	139.96	0;
    2	0	0	3	0	128.21	0;
    2	0	0	3	0	128.21	0;
    2	0	0	3	0	128.21	0;
    2	0	0	3	0	128.21	0;
    2	0	0	3	0	128.21	0;
    2	0	0	3	0	137.4	0;
    2	0	0	3	0	137.4	0;
    2	0	0	3	0	137.4	0;
    2	0	0	3	0	137.4	0;
    2	0	0	3	0	129.99	0;
    2	0	0	3	0	129.99	0;
    2	0	0	3	0	129.99	0;
    2	0	0	3	0	135.6	0;
    2	0	0	3	0	163.16	0;
    2	0	0	3	0	163.16	0;
    2	0	0	3	0	163.16	0;
    2	0	0	3	0	163.16	0;
    2	0	0	3	0	163.16	0;
    2	0	0	3	0	163.16	0;
    2	0	0	3	0	163.16	0;
    2	0	0	3	0	139.01	0;
    2	0	0	3	0	139.01	0;
    2	0	0	3	0	139.01	0;
    2	0	0	3	0	139.01	0;
    2	0	0	3	0	139.01	0;
    2	0	0	3	0	139.01	0;
    2	0	0	3	0	139.01	0;
    2	0	0	3	0	139.01	0;
    2	0	0	3	0	125.48	0;
    2	0	0	3	0	125.48	0;
    2	0	0	3	0	125.48	0;
    2	0	0	3	0	125.48	0;
    2	0	0	3	0	125.48	0;
    2	0	0	3	0	137.4	0;
    2	0	0	3	0	137.4	0;
    2	0	0	3	0	137.4	0;
    2	0	0	3	0	137.4	0;
    2	0	0	3	0	137.4	0;
    2	0	0	3	0	0	0;
    2	0	0	3	0	0	0;
    2	0	0	3	0	0	0;
    2	0	0	3	0	0	0;
    2	0	0	3	0	0	0;
    2	0	0	3	0	0	0;
    2	0	0	3	0	0	0;
    2	0	0	3	0	0	0;
    2	0	0	3	0	0	0;
    2	0	0	3	0	0	0;
    2	0	0	3	0	0	0;
    2	0	0	3	0	0	0;
    2	0	0	3	0	0	0;
    2	0	0	3	0	107.03	0;
    2	0	0	3	0	0	0;
    2	0	0	3	0	0	0;
    2	0	0	3	0	0	0;
    2	0	0	3	0	0	0;
    2	0	0	3	0	0	0;
    2	0	0	3	0	0	0;
    2	0	0	3	0	0	0;
    2	0	0	3	0	0	0;
    2	0	0	3	0	0	0;
    2	0	0	3	0	0	0;
    2	0	0	3	0	0	0;
    2	0	0	3	0	0	0;
    2	0	0	3	0	0	0;
    2	0	0	3	0	0	0;
    2	0	0	3	0	0	0;
    2	0	0	3	0	0	0;
    2	0	0	3	0	0	0;
    2	0	0	3	0	0	0;
    2	0	0	3	0	0	0;
    2	0	0	3	0	0	0;
    2	0	0	3	0	0	0;
    2	0	0	3	0	0	0;
    2	0	0	3	0	0	0;
    2	0	0	3	0	0	0;
    2	0	0	3	0	0	0;
    2	0	0	3	0	158.61	0;
    2	0	0	3	0	158.61	0;
    2	0	0	3	0	158.61	0;
    2	0	0	3	0	0	0;
    2	0	0	3	0	0	0;
    2	0	0	3	0	0	0;
    2	0	0	3	0	0	0;
    2	0	0	3	0	0	0;
    2	0	0	3	0	0	0;
    2	0	0	3	0	0	0;
    2	0	0	3	0	0	0;
    2	0	0	3	0	0	0;
    2	0	0	3	0	0	0;
    2	0	0	3	0	0	0;
    2	0	0	3	0	0	0;
    2	0	0	3	0	0	0;
    2	0	0	3	0	0	0;
    2	0	0	3	0	0	0;
    2	0	0	3	0	0	0;
    2	0	0	3	0	0	0;
    2	0	0	3	0	0	0;
    2	0	0	3	0	0	0;
    2	0	0	3	0	0	0;
    2	0	0	3	0	0	0;
    2	0	0	3	0	0	0;
    2	0	0	3	0	0	0;
    2	0	0	3	0	0	0;
    2	0	0	3	0	0	0;
    2	0	0	3	0	0	0;
    2	0	0	3	0	0	0;
    2	0	0	3	0	0	0;
    2	0	0	3	0	0	0;
    2	0	0	3	0	0	0;
    2	0	0	3	0	0	0;
    2	0	0	3	0	0	0;
    2	0	0	3	0	0	0;
    2	0	0	3	0	0	0;
    2	0	0	3	0	0	0;
    2	0	0	3	0	0	0;
    2	0	0	3	0	0	0;
    2	0	0	3	0	0	0;
    2	0	0	3	0	0	0;
    2	0	0	3	0	0	0;
    2	0	0	3	0	0	0;
    2	0	0	3	0	0	0;
    2	0	0	3	0	143.52	0;
    2	0	0	3	0	143.52	0;
    2	0	0	3	0	0	0;
    2	0	0	3	0	0	0;
    2	0	0	3	0	0	0;
    2	0	0	3	0	0	0;
    2	0	0	3	0	0	0;
    2	0	0	3	0	0	0;
    2	0	0	3	0	0	0;
    2	0	0	3	0	0	0;
    2	0	0	3	0	0	0;
    2	0	0	3	0	0	0;
    2	0	0	3	0	0	0;
    2	0	0	3	0	148.16	0;
    2	0	0	3	0	0	0;
    2	0	0	3	0	0	0;
    2	0	0	3	0	0	0;
    2	0	0	3	0	0	0;
    2	0	0	3	0	0	0;
    2	0	0	3	0	0	0;
    2	0	0	3	0	0	0;
    2	0	0	3	0	0	0;
    2	0	0	3	0	0	0;
    2	0	0	3	0	0	0;
    2	0	0	3	0	0	0;
    2	0	0	3	0	0	0;
    2	0	0	3	0	157	0;
    2	0	0	3	0	157	0;
    2	0	0	3	0	157	0;
    2	0	0	3	0	157	0;
    2	0	0	3	0	0	0;
    2	0	0	3	0	0	0;
    2	0	0	3	0	0	0;
...
];


%% dc grid topology
%colunm_names% dcpoles
mpc.dcpol=2;
% numbers of poles (1=monopolar grid, 2=bipolar grid)
%% bus data
%column_names%   busdc_i grid    Pdc     Vdc     basekVdc    Vdcmax  Vdcmin  Cdc
mpc.busdc = [
    1              1       0       1       345         1.1     0.9     0;
    2              1       0       1       345         1.1     0.9     0;
    3              1       0       1       345         1.1     0.9     0;
    4              1       0       1       345         1.1     0.9     0;
    5              1       0       1       345         1.1     0.9     0;
];

% %% converters
%column_names%   busdc_i busac_i type_dc type_ac P_g   Q_g   islcc Vtar    rtf xtf  transformer tm   bf filter    rc      xc  reactor   basekVac    Vmmax   Vmmin   Imax    status   LossA LossB  LossCrec LossCinv  droop      Pdcset    Vdcset  dVdcset Pacmax Pacmin Qacmax Qacmin poles connect_at ground_type ground_z
mpc.convdc = [
    1       33    1      	1       -60    -40    0 1     0.01  0.01 0 1 0.01 0 0.01   0.01 0  345         1.1     0.9     1.1     1       1.1033 0.887  2.885    2.885      0.0050    -58.6274   1.0079   0 100 -100 100 -100 2 0 1 0.05;
    2       70    1       1       -60    -40    0 1     0.01  0.01 0 1 0.01 0 0.01   0.01 0  345         1.1     0.9     1.1     1       1.1033 0.887  2.885    2.885      0.0050    -58.6274   1.0079   0 100 -100 100 -100 2 0 0 0.05;
    3       237   1       1       -60    -40    0 1     0.01  0.01 0 1 0.01 0 0.01   0.01 0  345         1.1     0.9     1.1     1       1.1033 0.887  2.885    2.885      0.0050    -58.6274   1.0079   0 100 -100 100 -100 2 0 0 0.05;
    4       171   1       1       -60    -40    0 1     0.01  0.01 0 1 0.01 0 0.01   0.01 0  345         1.1     0.9     1.1     1       1.1033 0.887  2.885    2.885      0.0050    -58.6274   1.0079   0 100 -100 100 -100 2 0 0 0.05;
    5       44    1       1       -60    -40    0 1     0.01  0.01 0 1 0.01 0 0.01   0.01 0  345         1.1     0.9     1.1     1       1.1033 0.887  2.885    2.885      0.0050    -58.6274   1.0079   0 100 -100 100 -100 2 0 0 0.05;
];

%% branches
%column_names% fbusdc tbusdc    r l c rateA rateB rateC status conductors connect_at return_z
mpc.branchdc = [
                    1      2 0.01 0 0   100   100   100      1          3          0    0.052;
                    2      3 0.01 0 0   100   100   100      1          3          0    0.052;
                    1      3 0.01 0 0   100   100   100      1          3          0    0.052;
                    3      4 0.01 0 0   100   100   100      1          3          0    0.052;
                    4      5 0.01 0 0   100   100   100      1          3          0    0.052;
];


% adds current ratings to branch matrix
%column_names%	c_rating_a
mpc.branch_currents = [
400;250;330;250;500;500;500;500;400;330;500;400;400;500;500;330;500;500;400;250;500;330;330;330;1386;1386;339;412;412;1206;436;436;831;831;1206;339;375;400;231;250;339;231;266;267;317;267;295;295;197;356;231;476;970;1154;838;866;1154;1154;1154;866;831;717;970;1386;375;231;317;317;231;295;231;400;400;231;231;339;250;295;461;461;380;831;1154;1154;838;838;838;838;197;231;274;287;341;341;319;339;231;317;231;341;341;287;341;266;266;231;287;838;838;838;1119;1154;838;341;180;341;341;341;319;319;250;266;197;250;341;317;314;314;400;250;267;180;308;197;400;341;457;457;396;341;231;231;231;197;180;267;231;231;250;317;231;341;266;250;137;137;1154;1240;838;831;838;375;375;267;267;317;317;341;317;287;339;400;231;317;231;286;250;229;341;267;287;314;400;341;341;231;317;317;231;231;231;231;341;717;717;1240;831;222;197;197;231;461;231;231;341;317;838;831;838;831;831;831;250;160;300;426;160;160;160;9999;160;160;160;160;9999;250;9999;160;160;9999;160;160;9999;160;330;9999;330;160;160;160;160;160;160;160;160;160;160;250;9999;160;250;250;160;160;160;160;160;160;160;160;250;250;160;250;250;160;160;160;160;160;250;250;160;160;160;160;100;160;250;250;160;160;160;160;160;160;160;160;160;160;160;160;160;160;160;160;160;160;160;160;160;250;250;160;160;250;250;250;160;160;160;160;160;160;160;160;160;160;160;250;250;160;160;160;160;160;160;160;160;160;160;160;160;160;160;160;160;330;9999;330;250;160;160;160;100;100;160;330;250;160;160;160;160;160;160;160;160;160;250;250;9999;250;160;160;160;160;330;9999;160;160;9999;160;330;9999;160;160;330;160;160;160;160;250;250;160;160;58;51;62;62;58;39;77;90;79;55;55;58;58;51;51;39;39;102;102;102;87;87;123;58;123;81;57;58;71;55;90;120;55;55;76;58;120;69;120;51;58;78;69;49;71;76;90;69;19;125;129;81;81;81;81;71;71;71;71;55;55;137;55;137;55;55;90;55;55;81;90;90;90;90;58;90;90;90;102;123;78;123;55;81;90;58;81;90;81;81;93;76;70;70;81;137;137;137;137;137;93;137;137;76;76;76;76;93;93;76;93;64;64;137;137;93;137;76;76;70;93;76;76;93;76;93;137;105;137;137;137;137;64;137;93;70;70;96;76;93;137;76;137;93;93;93;93;137;137;64;70;70;137;64;76;76;64;93;137;137;93;76;70;70;105;93;96;96;76;137;137;183;137;81;81;81;81;55;55;71;55;55;55;55;81;81;81;55;55;55;55;71;81;81;55;81;81;81;55;81;55;55;55;55;81;71;71;81;81;55;81;81;55;64;55;55;81;81;81;81;81;81;81;55;81;81;81;81;55;81;81;81;81;81;81;76;93;81;81;90;77;77;77;90;90;77;77;77;90;90;90;90;90;90;90;90;90;77;90;90;90;90;77;77;90;77;90;90;90;77;90;90;90;77;11;77;77;90;11;90;90;90;90;90;77;90;90;90;90;90;90;90;90;90;90;90;58;77;118;58;58;90;208;90;122;122;58;77;77;77;77;90;90;90;90;58;58;58;58;58;90;90;90;90;90;90;58;58;58;58;77;208;90;208;90;90;90;90;90;90;90;90;90;90;90;90;90;208;208;196;196;208;90;90;58;90;58;90;90;58;90;90;122;90;58;58;90;77;90;90;90;90;90;90;90;90;90;90;90;90;90;90;90;90;58;90;90;58;90;90;90;90;58;90;90;90;90;90;77;90;90;90;77;90;90;58;90;90;90;123;78;78;102;69;123;123;123;91;123;123;78;123;123;123;123;78;78;123;78;78;123;78;78;123;78;102;78;123;69;123;123;123;123;123;78;123;123;78;78;78;123;123;91;102;78;91;123;123;123;123;123;69;123;123;123;102;102;123;123;123;123;123;123;123;95;40;95;40;95;95;95;77;90;90;76;58;58;58;79;90;90;90;90;90;77;69;90;69;90;77;58;90;58;58;58;58;90;58;58;90;58;90;90;90;90;90;90;90;90;90;90;90;90;90;90;90;120;120;58;120;120;90;90;90;58;90;120;90;90;183;148;137;120;120;120;120;120;90;90;131;120;120;120;120;90;77;90;90;90;77;90;137;58;58;58;77;77;58;58;90;77;77;58;58;69;58;58;58;69;77;90;58;58;58;69;90;58;10;68;90;90;90;101;76;90;90;90;90;26;10;58;58;58;58;34;34;58;58;122;58;58;58;58;58;16;90;90;90;118;90;58;58;58;58;58;58;58;90;58;58;58;58;58;90;58;90;90;90;90;90;90;58;58;58;90;90;90;58;76;76;90;90;76;76;123;90;58;58;90;90;131;90;58;90;90;58;90;58;58;90;90;90;58;58;90;90;90;90;90;90;90;58;131;58;90;90;90;58;90;90;76;123;90;121;58;121;76;120;120;76;58;58;90;137;90;137;137;137;137;90;103;79;79;120;120;120;79;79;120;120;120;120;120;120;79;103;103;103;103;79;79;79;79;79;79;79;79;120;274;120;120;120;120;79;79;79;79;120;120;120;120;120;120;120;120;79;79;79;120;79;79;79;79;79;79;79;79;79;120;120;120;79;79;79;120;120;120;79;79;120;120;120;120;120;120;120;79;120;120;120;103;120;120;120;120;120;120;137;137;137;137;137;137;137;137;137;137;137;62;62;39;29;62;39;62;114;50;75;50;63;50;50;29;50;50;29;50;50;62;62;105;105;39;51;51;51;75;105;105;105;39;75;62;47;75;62;47;39;51;51;62;75;47;75;75;47;75;75;70;70;62;70;75;39;62;62;62;62;75;62;39;63;63;99;51;63;62;33;39;39;39;39;62;62;27;51;51;39;62;62;62;62;62;62;62;62;62;62;62;62;62;62;62;99;39;39;39;39;62;51;51;39;51;39;62;62;62;51;39;39;39;39;39;62;39;39;39;39;39;62;29;57;39;39;62;39;62;62;51;62;62;39;51;62;62;39;62;62;62;51;51;51;62;62;51;39;62;62;62;62;39;51;62;62;62;62;39;51;62;51;51;78;114;78;114;39;51;62;51;51;39;62;62;62;62;51;51;62;39;29;62;39;62;62;62;62;62;78;51;62;62;62;62;114;51;62;62;62;62;39;114;62;39;62;62;51;75;75;75;47;47;47;75;75;75;63;75;75;75;75;75;75;63;49;75;63;57;63;63;63;63;67;63;47;75;75;47;75;75;75;63;63;75;75;75;75;75;99;99;75;99;75;75;75;75;75;75;75;75;63;63;57;57;75;75;75;75;47;47;75;75;75;75;75;99;75;75;75;75;75;75;75;75;75;47;75;75;75;63;63;47;63;75;75;105;105;75;75;75;75;75;75;75;75;75;75;63;75;99;75;75;75;63;47;47;63;63;63;75;75;63;75;75;75;63;47;75;63;63;49;63;63;49;75;80;47;75;47;75;75;75;114;75;75;75;75;47;75;75;63;75;75;63;75;63;75;75;75;75;75;63;63;63;75;47;75;75;75;99;75;75;75;99;47;75;63;63;75;75;47;75;75;75;67;75;47;99;63;63;75;47;75;75;115;75;75;75;75;75;75;75;47;75;75;75;75;75;75;75;75;47;62;50;50;62;62;62;62;50;50;62;62;50;62;50;62;62;62;62;62;62;62;62;62;62;62;62;50;62;62;62;62;62;62;62;50;50;39;50;50;39;62;62;50;50;62;62;50;50;62;50;62;62;62;62;62;62;62;62;62;50;62;62;50;62;62;50;50;39;50;50;62;62;62;62;62;62;62;50;50;50;62;62;62;62;62;62;50;50;62;62;62;39;62;62;62;62;62;62;62;62;62;62;62;62;62;39;39;39;39;62;50;62;62;62;62;50;62;62;50;98;62;98;98;98;50;50;50;50;39;39;39;39;39;19;39;50;50;62;50;39;39;39;50;39;29;57;57;19;39;62;62;105;105;39;39;57;39;39;19;39;39;39;19;39;50;50;50;50;39;62;39;50;62;50;39;50;39;55;62;39;50;57;209;191;105;114;50;39;39;39;57;50;57;62;62;114;114;114;114;114;78;78;78;196;105;114;114;114;33;50;62;39;39;33;57;57;229;229;229;51;51;51;51;51;62;62;51;51;51;51;51;51;62;62;62;62;62;62;62;39;39;39;62;62;62;62;51;51;51;62;62;51;62;51;98;98;27;27;27;27;27;27;39;62;62;39;39;51;39;62;39;62;39;57;39;39;62;62;57;62;62;55;62;98;51;98;98;51;51;39;62;51;62;62;62;98;62;62;62;62;51;51;62;39;62;97;97;62;62;39;51;62;51;98;51;62;62;62;62;39;81;81;62;62;62;39;39;39;39;51;39;51;39;39;39;51;39;57;62;39;57;57;57;62;62;62;67;67;62;62;62;51;62;38;51;51;39;62;51;51;62;62;62;62;99;75;115;115;47;63;75;75;75;63;75;75;47;75;75;75;75;75;75;75;29;75;75;63;75;75;75;75;75;75;75;47;63;75;75;75;63;75;75;75;75;75;75;75;75;63;57;63;75;75;63;75;63;75;75;75;99;99;63;75;75;47;75;63;114;75;75;75;57;75;75;75;75;75;80;75;75;80;75;69;69;63;75;75;75;75;75;75;75;75;75;63;75;75;75;63;75;75;75;75;75;75;75;75;75;75;75;75;75;75;75;75;75;75;75;75;123;78;78;78;55;55;78;78;76;76;120;62;62;62;82;59;55;62;62;123;105;105;105;105;105;105;105;62;10;78;76;76;76;67;69;78;118;123;123;123;78;78;78;78;78;78;78;78;78;123;123;123;123;123;123;123;123;123;123;123;123;123;123;102;123;123;120;120;123;57;78;78;78;78;78;78;78;78;78;78;78;78;78;78;78;78;123;102;123;123;120;78;78;78;78;114;78;78;123;123;123;120;102;78;120;91;123;120;78;78;78;102;102;120;120;91;102;102;123;123;102;123;123;123;123;120;10;123;78;69;78;78;123;78;78;123;120;123;91;91;69;78;123;78;78;91;123;91;91;69;69;78;78;78;120;78;78;69;120;120;102;123;120;120;78;69;78;120;91;102;10;120;91;123;123;102;123;123;78;91;102;102;78;102;102;78;78;123;123;123;78;123;78;80;78;123;123;123;78;78;76;62;62;91;105;62;62;62;105;105;87;76;62;62;62;105;97;48;48;48;69;69;103;59;59;59;59;105;196;171;87;160;69;69;69;69;76;69;69;62;76;48;105;51;51;39;82;51;59;82;82;76;76;51;105;82;82;82;87;62;62;91;87;76;78;78;123;78;123;76;76;76;78;78;78;76;123;78;78;78;78;78;78;76;78;78;78;78;76;102;102;120;78;78;76;123;123;78;102;69;78;78;39;39;39;39;76;76;78;78;123;78;34;120;120;120;76;114;123;114;114;76;102;72;78;78;55;55;55;78;78;120;76;55;55;102;120;78;78;120;120;61;120;120;102;120;78;102;102;102;120;123;123;120;69;120;78;114;69;69;69;102;78;78;120;78;78;78;78;120;91;123;91;91;114;120;114;102;78;78;78;120;120;102;120;78;123;120;123;114;114;102;102;196;196;123;102;123;123;123;123;123;114;78;120;123;123;123;120;102;102;78;120;120;78;78;78;78;78;78;120;78;69;123;123;91;78;102;102;102;102;102;102;102;102;102;102;102;78;102;78;123;123;123;123;120;120;123;123;120;123;123;123;120;120;120;123;123;120;120;120;120;120;123;120;76;76;120;120;76;69;69;76;114;114;120;120;123;120;120;120;120;120;120;120;114;78;78;114;114;123;120;90;120;120;120;120;120;137;123;120;123;123;62;62;39;39;39;39;39;39;39;39;97;97;39;62;62;62;62;62;55;62;120;62;62;39;62;62;62;62;10;39;62;20;69;102;123;123;101;69;70;123;114;102;107;102;101;69;69;90;48;78;57;62;78;69;69;69;69;69;69;123;69;69;102;69;102;102;102;102;114;69;102;123;102;76;123;102;123;123;123;123;120;120;102;123;123;114;78;69;69;76;123;78;102;102;99;123;123;69;69;69;69;78;123;123;76;69;69;16;16;16;10;102;123;123;123;123;122;122;76;90;90;137;137;114;114;69;69;69;69;123;123;75;62;137;137;137;120;120;114;95;137;122;137;114;114;69;120;137;123;120;131;90;122;123;123;95;95;123;123;120;107;114;114;114;114;114;114;123;140;123;76;120;114;39;39;39;104;104;104;104;39;104;104;39;39;39;39;62;39;101;39;39;39;39;39;62;39;101;101;103;137;86;123;123;128;128;128;137;128;128;128;123;140;137;99;69;103;123;123;123;114;114;114;90;137;123;123;137;114;137;120;95;114;114;114;120;76;123;120;120;120;120;137;137;137;124;137;137;137;137;137;137;120;137;123;137;137;137;137;137;137;120;120;120;137;38;72;72;137;76;137;120;128;120;120;78;78;95;137;137;123;46;123;133;69;69;69;69;69;69;140;140;69;69;69;69;57;69;114;69;69;114;123;69;84;114;114;123;57;57;82;69;69;69;123;69;119;119;69;69;123;123;69;69;123;123;78;123;69;137;69;57;76;76;140;137;137;137;21;48;69;48;69;137;133;95;126;137;123;123;95;140;78;78;131;131;114;131;114;114;114;114;831;80;80;80;876;876;876;1593;876;1593;876;876;876;876;876;1593;1593;876;1593;876;876;876;876;876;1593;1593;876;1593;876;1593;876;876;876;1593;876;876;876;876;1593;876;876;876;876;1593;876;876;876;876;876;876;876;876;876;876;1593;876;876;1593;1593;876;876;1593;876;876;876;876;1593;876;876;876;876;1593;876;876;876;876;1593;876;1593;876;876;876;876;876;876;876;1593;1593;876;876;876;1593;876;1593;876;876;1593;876;438;438;438;438;438;438;438;438;438;438;438;438;438;438;438;438;438;438;438;438;438;438;438;438;438;438;438;438;438;438;438;438;438;438;438;438;438;438;438;438;438;438;438;438;438;438;438;438;438;438;438;438;438;438;438;438;438;438;438;438;438;438;438;438;438;438;438;438;438;438;438;438;438;438;438;438;438;438;438;438;438;438;438;438;438;438;438;438;438;438;438;438;438;438;438;438;438;438;438;438;438;438;438;438;438;438;438;438;438;438;438;438;438;438;438;438;438;438;438;438;438;438;438;438;438;438;438;438;438;438;438;438;438;438;438;438;438;438;438;438;438;438;438;438;438;438;438;438;438;438;438;438;438;438;438;438;438;438;438;438;438;438;438;438;438;438;438;438;438;438;438;438;438;438;438;438;438;438;438;438;438;438;438;438;438;438;438;438;438;438;438;438;438;438;438;438;438;438;438;438;438;438;438;438;438;438;438;438;438;438;438;438;438;438;438;438;438;438;438;438;438;438;438;438;438;438;438;438;438;438;438;438;438;438;438;438;438;438;438;438;438;438;438;438;438;438;438;438;438;438;438;438;438;438;438;438;438;438;438;438;438;438;438;438;438;438;438;438;438;438;438;438;438;438;438;438;438;438;438;438;438;438;438;438;438;438;438;438;438;438;438;438;438;438;438;438;438;438;438;438;438;438;438;438;438;438;438;438;438;438;438;438;438;438;438;438;438;438;438;438;438;438;438;438;438;438;438;438;438;438;438;438;438;438;438;438;438;438;438;438;438;438;438;438;438;438;438;438;438;438;438;438;438;438;438;438;438;438;438;438;438;438;438;438;438;438;438;438;438;438;438;438;438;438;438;438;438;438;438;438;438;438;438;438;438;438;438;438;438;438;438;438;438;438;438;438;438;438;438;438;438;438;438;438;438;438;438;438;438;438;438;438;438;438;438;438;438;438;438;438;438;438;438;438;438;438;438;438;438;438;438;438;438;438;438;438;438;438;438;438;438;438;438;438;438;438;438;438;438;438;438;438;438;438;438;438;438;438;438;438;438;438;438;438;438;438;438;438;438;438;438;438;438;438;438;438;438;438;438;438;438;438;438;438;438;438;438;438;438;438;438;438;438;438;438;438;438;438;438;438;438;438;438;438;438;438;438;438;438;438;438;438;438;438;438;438;438;438;438;438;438;438;438;438;438;438;438;438;438;438;438;438;438;438;438;438;438;438;438;438;438;438;438;438;438;438;438;438;438;438;438;438;438;438;438;438;438;438;438;438;438;438;438;438;438;438;438;438;438;438;438;438;438;438;438;438;438;438;438;438;438;438;438;438;438;438;438;438;438;438;438;438;438;438;438;438;438;438;438;438;438;438;438;438;438;438;438;438;438;438;438;438;438;438;438;438;438;438;438;438;438;438;438;438;438;438;438;438;438;438;438;438;438;1593;160;160;160;160;160;160;1386;831;838;970;
];
